Title: New York Times, Thursday, March 6, 1975
Author: Maura B. Jacobson
Editor: Will Weng
Date: 1975-03-06


LEDA#NOMAD#TIDE
APIN#AGORA#ASEA
MIST#PROMETHEUS
ACHILLES#DRIEST
###GOES#BAIT###
JASONS#CALLIOPE
AWING#KABUL#VAR
LAME#MIRES#HERA
NIB#MELTS#BERET
ATALANTA#POSTNO
###ODES#RUMP###
SPIRAL#CERBERUS
TELEMACHUS#RANA
ALAN#UDINE#URIS
BEYS#SEDER#SETH


A1. Mythical figure ~ LEDA
A5. Bedouin ~ NOMAD
A10. Neptune's concern ~ TIDE
A14. As neat as ___ ~ APIN
A15. Greek hub ~ AGORA
A16. On Poseidon's territory ~ ASEA
A17. Drizzle ~ MIST
A18. Mythical figure ~ PROMETHEUS
A20. Mythical figure ~ ACHILLES
A22. Least rainy ~ DRIEST
A23. Takes off ~ GOES
A24. Decoy ~ BAIT
A25. Mythical figure and namesakes ~ JASONS
A28. Mythical figure ~ CALLIOPE
A32. "Comin' in on ___ and . . . " ~ AWING
A33. Afghan capital ~ KABUL
A34. Differing: Abbr. ~ VAR
A35. Kind of duck or brain ~ LAME
A36. Swamps ~ MIRES
A37. Mythical figure ~ HERA
A38. Penpoint ~ NIB
A39. Dissolves ~ MELTS
A40. Montmartre headgear ~ BERET
A41. Mythical figure ~ ATALANTA
A43. "___ BILLS" (sign on a hoarding) ~ POSTNO
A44. Poetic works ~ ODES
A45. Cut of beef ~ RUMP
A46. Helix ~ SPIRAL
A49. Mythical figure ~ CERBERUS
A53. Mythical figure ~ TELEMACHUS
A55. Frog genus ~ RANA
A56. One of the Kings ~ ALAN
A57. Italian province ~ UDINE
A58. "QB VII" author ~ URIS
A59. Turkish V.l.P.'s ~ BEYS
A60. Jewish fete ~ SEDER
A61. Mr. Thomas ~ SETH

D1. Tibetan V.I.P. ~ LAMA
D2. "Iliad," for one ~ EPIC
D3. Flatware item ~ DISH
D4. Mythical figure ~ ANTIGONE
D5. Vesuvius's neighbor ~ NAPLES
D6. Mythical monsters ~ OGRES
D7. Pasture sounds ~ MOOS
D8. Sleeve site ~ ARM
D9. Mythical figure ~ DAEDALUS
D10. Gauguin's retreat ~ TAHITI
D11. Words of understanding ~ ISEE
D12. Mythical figure: Lat. ~ DEUS
D13. Aurora's direction ~ EAST
D19. Diva's forte ~ TRILL
D21. Protracted ~ LONG
D24. Ruth and Zaharias ~ BABES
D25. Mazo de la Roche locale ~ JALNA
D26. Expect ~ AWAIT
D27. Leo's cousin ~ SIMBA
D28. Runnymede document, with Magna ~ CARTA
D29. Aboveboard ~ OVERT
D30. Punctuation mark: Abbr. ~ PAREN
D31. Mythical figure ~ ERATO
D33. Highland garb ~ KILTS
D36. Mythical figure ~ MENELAUS
D37. Mythical figure ~ HESPERUS
D39. Ethel Merman title ~ MADAM
D40. Explosive ~ BOMB
D42. Sophia and family ~ LORENS
D43. Ship's officer ~ PURSER
D45. What alumni do ~ REUNE
D46. Pierce ~ STAB
D47. Mythical figure ~ PELE
D48. "Now ___ me down . . . " ~ ILAY
D49. Rebuked ~ CHID
D50. Steak order ~ RARE
D51. Singleton ~ UNIT
D52. Obi ~ SASH
D54. Between B and F ~ CDE

